version 2
run General-0-20220609-17:16:12-1918
attr configname General
attr datetime 20220609-17:16:12
attr experiment General
attr inifile omnetpp.ini
attr iterationvars ""
attr iterationvarsf ""
attr measurement ""
attr network Network
attr processid 1918
attr repetition 0
attr replication #0
attr resultdir results
attr runnumber 0
attr seedset 0
param Network.node[0].app.interArrivalTime exponential(1)
param Network.node[0].app.packetByteSize 125000
param Network.node[0].app.destination 5
param Network.node[2].app.interArrivalTime exponential(1)
param Network.node[2].app.packetByteSize 125000
param Network.node[2].app.destination 5

vector 0 Network.node[0].lnk[0] "Buffer Size" ETV
vector 1 Network.node[2].lnk[0] "Buffer Size" ETV
vector 2 Network.node[7].lnk[0] "Buffer Size" ETV
vector 3 Network.node[1].lnk[0] "Buffer Size" ETV
vector 4 Network.node[6].lnk[0] "Buffer Size" ETV
vector 5 Network.node[5].app Delay ETV
0	3	0.898560388484	1
0	4	0.898560388484	0
0	7	1.821783519955	1
0	12	1.898560388484	0
0	37	3.773328855839	1
0	38	3.773328855839	0
0	47	3.859804212075	1
0	59	4.324377342509	2
0	64	4.773328855839	1
0	72	4.859804212075	2
0	79	5.301383768902	3
0	89	5.773328855839	2
0	101	5.786511932624	3
0	107	6.139671071762	4
0	110	6.198055740855	5
0	114	6.52596940626	6
0	120	6.773328855839	5
0	142	7.564128706924	6
0	143	7.773328855839	5
0	164	8.564128706924	6
0	168	8.773328855839	5
0	192	9.512968020783	6
0	193	9.773328855839	5
0	218	10.363172325843	6
0	219	10.773328855839	5
0	235	11.081864138406	6
0	244	11.363172325843	7
0	248	11.773328855839	6
0	264	11.834538251719	7
0	276	12.363172325843	8
0	282	12.673971104619	9
0	283	12.773328855839	8
1	10	1.859604212075	1
1	11	1.859604212075	0
1	19	2.646805352057	1
1	20	2.859604212075	0
1	62	4.52576940626	1
1	63	4.52576940626	0
1	87	5.563928706924	1
1	88	5.563928706924	0
1	104	6.139447903807	1
1	115	6.563928706924	0
1	159	8.362972325843	1
1	160	8.362972325843	0
1	167	8.681328466685	1
1	184	9.164930571633	2
1	185	9.362972325843	1
1	209	9.814376919884	2
1	210	10.362972325843	1
1	236	11.362972325843	0
1	247	11.486588120209	1
1	267	12.14047068743	2
1	268	12.362972325843	1
1	279	12.639342696446	2
2	15	1.898660388484	1
2	16	1.898660388484	0
2	29	2.898660388484	1
2	30	2.898660388484	0
2	67	4.773428855839	1
2	68	4.773428855839	0
2	93	5.773428855839	1
2	94	5.773428855839	0
2	124	6.773428855839	1
2	125	6.773428855839	0
2	147	7.773428855839	1
2	148	7.773428855839	0
2	172	8.773428855839	1
2	173	8.773428855839	0
2	197	9.773428855839	1
2	198	9.773428855839	0
2	223	10.773428855839	1
2	224	10.773428855839	0
2	252	11.773428855839	1
2	253	11.773428855839	0
2	287	12.773428855839	1
2	288	12.773428855839	0
3	23	2.859704212075	1
3	24	2.859704212075	0
3	43	3.859704212075	1
3	44	3.859704212075	0
3	83	5.52586940626	1
3	84	5.52586940626	0
3	118	6.564028706924	1
3	119	6.564028706924	0
3	138	7.564028706924	1
3	139	7.564028706924	0
3	188	9.363072325843	1
3	189	9.363072325843	0
3	214	10.363072325843	1
3	215	10.363072325843	0
3	240	11.363072325843	1
3	241	11.363072325843	0
3	272	12.363072325843	1
3	273	12.363072325843	0
4	33	2.898760388484	1
4	34	2.898760388484	0
4	52	3.898760388484	1
4	53	3.898760388484	0
4	97	5.773528855839	1
4	98	5.773528855839	0
4	129	6.773528855839	1
4	130	6.773528855839	0
4	152	7.773528855839	1
4	153	7.773528855839	0
4	177	8.773528855839	1
4	178	8.773528855839	0
4	202	9.773528855839	1
4	203	9.773528855839	0
4	228	10.773528855839	1
4	229	10.773528855839	0
4	257	11.773528855839	1
4	258	11.773528855839	0
4	292	12.773528855839	1
4	293	12.773528855839	0
5	56	3.898860388484	3.0003
5	76	4.898860388484	3.077076868529
5	133	6.773628855839	3.0003
5	156	7.773628855839	5.914024643764
5	181	8.773628855839	4.44925151333
5	206	9.773628855839	7.126823503782
5	232	10.773628855839	5.472245086937
5	261	11.773628855839	5.987116923215
0	305	13.363172325843	9
0	306	13.773328855839	8
0	328	14.363172325843	9
0	331	14.482340368894	10
0	334	14.556025724359	11
0	335	14.773328855839	10
0	351	14.967603720602	11
0	354	15.058764746726	12
0	369	15.363172325843	13
0	373	15.773328855839	12
1	297	13.362972325843	1
1	320	14.362972325843	0
1	357	15.237596782295	1
1	360	15.258022370694	2
1	361	15.362972325843	1
1	372	15.717270507949	2
2	310	13.773428855839	1
2	311	13.773428855839	0
2	339	14.773428855839	1
2	340	14.773428855839	0
2	377	15.773428855839	1
2	378	15.773428855839	0
3	301	13.363072325843	1
3	302	13.363072325843	0
3	324	14.363072325843	1
3	325	14.363072325843	0
3	365	15.363072325843	1
3	366	15.363072325843	0
4	315	13.773528855839	1
4	316	13.773528855839	0
4	344	14.773528855839	1
4	345	14.773528855839	0
4	382	15.773528855839	1
4	383	15.773528855839	0
5	296	12.773628855839	6.633957784077
5	319	13.773628855839	7.575573114984
5	348	14.773628855839	10.247859449579

