version 2
run General-0-20220616-13:59:02-2285
attr configname General
attr datetime 20220616-13:59:02
attr experiment General
attr inifile omnetpp.ini
attr iterationvars ""
attr iterationvarsf ""
attr measurement ""
attr network Network
attr processid 2285
attr repetition 0
attr replication #0
attr resultdir results
attr runnumber 0
attr seedset 0
param Network.node[{0,1,2,3,4,6,7}].app.interArrivalTime exponential(1)
param Network.node[{0,1,2,3,4,6,7}].app.packetByteSize 125000
param Network.node[{0,1,2,3,4,6,7}].app.destination 5

vector 0 Network.node[7].lnk[0] "Buffer Size" ETV
vector 1 Network.node[6].lnk[0] "Buffer Size" ETV
vector 2 Network.node[0].lnk[0] "Buffer Size" ETV
vector 3 Network.node[4].lnk[1] "Buffer Size" ETV
0	3	0.353159139138	1
0	4	0.353159139138	0
1	7	0.485128163722	1
1	8	0.485128163722	0
1	11	0.543512832815	1
2	14	0.898560388484	1
2	15	0.898560388484	0
2	22	1.216916529326	1
3	18	0.977006426393	1
3	19	0.977006426393	0
vector 4 Network.node[5].net "Hops Count" ETV
vector 5 Network.node[5].app Delay ETV
vector 6 Network.node[1].lnk[0] "Buffer Size" ETV
vector 7 Network.node[3].lnk[1] "Buffer Size" ETV
vector 8 Network.node[2].lnk[1] "Buffer Size" ETV
0	48	1.898660388484	1
0	49	1.898660388484	0
0	67	2.576683561174	1
0	87	2.898660388484	0
0	89	2.898660388484	1
0	136	3.898660388484	0
0	138	3.898660388484	1
0	173	4.898660388484	0
0	175	4.898660388484	1
0	195	5.174937647023	2
0	209	5.898660388484	1
0	211	5.898660388484	2
0	248	6.788939721916	3
0	258	6.898660388484	2
0	260	6.898660388484	3
0	287	7.661260916958	4
0	307	7.898660388484	3
0	309	7.898660388484	4
1	26	1.353259139138	2
1	30	1.485128163722	1
1	58	2.485128163722	0
1	92	2.898760388484	1
1	116	3.485128163722	0
1	129	3.858425112743	1
1	141	3.898760388484	2
1	152	4.009655966408	3
1	159	4.485128163722	2
1	178	4.898760388484	3
1	196	5.485128163722	2
1	214	5.898760388484	3
1	225	6.04997022435	4
1	232	6.485128163722	3
1	245	6.78493464554	4
1	263	6.898760388484	5
1	278	7.485128163722	4
1	297	7.806366519889	5
1	312	7.898760388484	6
2	40	1.866362877577	2
2	45	1.898560388484	1
2	70	2.61903699089	2
2	77	2.859704212075	3
2	85	2.898560388484	2
2	134	3.898560388484	1
2	158	4.427406255165	2
2	166	4.5319154124	3
2	171	4.898560388484	2
2	207	5.898560388484	1
2	256	6.898560388484	0
2	291	7.682085341076	1
2	305	7.898560388484	0
3	29	1.460608531341	1
3	54	1.977006426393	0
3	84	2.879064054203	1
3	97	2.977006426393	0
3	103	3.029504648964	1
3	109	3.120665675088	2
3	112	3.141091263487	3
3	126	3.600339400742	4
3	133	3.879064054203	5
3	146	3.977006426393	4
3	170	4.879064054203	5
3	183	4.977006426393	4
3	192	5.106123659379	5
3	206	5.879064054203	6
3	219	5.977006426393	5
3	242	6.711363216441	6
3	255	6.879064054203	7
3	271	6.977006426393	6
3	304	7.879064054203	7
3	317	7.977006426393	6
4	32	1.485228163722	1
4	56	1.977106426393	1
4	60	2.485228163722	1
4	99	2.977106426393	1
4	118	3.485228163722	2
4	148	3.977106426393	2
4	161	4.485228163722	3
4	185	4.977106426393	1
4	198	5.485228163722	1
4	221	5.977106426393	1
4	234	6.485228163722	2
4	273	6.977106426393	1
4	280	7.485228163722	1
5	33	1.485228163722	1.0001
5	57	1.977106426393	1.0001
5	61	2.485228163722	1.941715330907
5	100	2.977106426393	1.516497895052
5	119	3.485228163722	3.132069024584
5	149	3.977106426393	2.09814237219
5	162	4.485228163722	3.586667775238
5	186	4.977106426393	1.947601777429
5	199	5.485228163722	1.626803050979
5	222	5.977106426393	2.856440751305
5	235	6.485228163722	3.908544602548
5	274	6.977106426393	3.836015162906
5	281	7.485228163722	3.475572197314
6	36	1.859604212075	1
6	37	1.859604212075	0
6	122	3.5318154124	1
6	123	3.5318154124	0
6	238	6.681985341076	1
6	239	6.681985341076	0
6	251	6.807859750514	1
6	270	6.962589431014	2
6	288	7.681985341076	1
6	294	7.733424089481	2
6	300	7.845370250114	3
7	43	1.878964054203	1
7	44	1.878964054203	0
7	64	2.532846621424	1
7	81	2.878964054203	0
7	96	2.951645335884	1
7	106	3.03171863044	2
7	130	3.878964054203	1
7	145	3.951645335884	2
7	155	4.076331138748	3
7	167	4.878964054203	2
7	182	4.951645335884	3
7	203	5.878964054203	2
7	218	5.951645335884	3
7	228	6.11722335466	4
7	252	6.878964054203	3
7	267	6.951645335884	4
7	284	7.63375932865	5
7	301	7.878964054203	4
7	316	7.951645335884	5
8	52	1.951545335884	1
8	53	1.951545335884	0
8	73	2.790978188784	1
8	80	2.864663544249	2
8	93	2.951545335884	1
8	115	3.276241540492	2
8	142	3.951545335884	1
8	179	4.951545335884	0
8	189	5.063729203931	1
8	202	5.705438376609	2
8	215	5.951545335884	1
8	231	6.324367836236	2
8	264	6.951545335884	1
8	277	7.460306777946	2
8	313	7.951545335884	1

